Version 4
SHEET 1 880 680
WIRE -48 288 -160 288
WIRE 16 288 -48 288
WIRE 48 288 16 288
WIRE 384 288 336 288
WIRE 464 288 384 288
WIRE 560 288 464 288
WIRE 688 288 640 288
WIRE 800 288 688 288
WIRE 384 304 384 288
WIRE 688 304 688 288
WIRE 16 384 16 288
WIRE 48 384 16 384
WIRE 384 384 384 368
WIRE 384 384 336 384
WIRE -160 480 -160 368
WIRE -48 480 -48 352
WIRE -48 480 -160 480
WIRE 192 480 192 448
WIRE 192 480 -48 480
WIRE 464 480 464 352
WIRE 464 480 192 480
WIRE 688 480 688 368
WIRE 688 480 464 480
WIRE 192 512 192 480
FLAG 192 512 0
SYMBOL cap -64 288 R0
SYMATTR InstName C1
SYMATTR Value 1µ
SYMBOL cap 448 288 R0
SYMATTR InstName C3
SYMATTR Value 10µ
SYMBOL PowerProducts\\LT1761-3 192 336 R0
SYMATTR InstName U1
SYMBOL voltage -160 272 R0
WINDOW 123 0 0 Left 0
WINDOW 39 0 0 Left 0
SYMATTR InstName V1
SYMATTR Value 12
SYMBOL res 544 272 M90
WINDOW 0 0 56 VBottom 2
WINDOW 3 32 56 VTop 2
SYMATTR InstName R1
SYMATTR Value 51
SYMBOL cap 672 304 R0
SYMATTR InstName C4
SYMATTR Value 1µ
SYMBOL cap 368 304 R0
SYMATTR InstName C2
SYMATTR Value 0.01µ
TEXT -194 536 Left 2 !.tran .05 startup
